* PSpice Model Editor - Version 16.5.0
*$
.model UT4060	D(Is=92.91f Rs=58.12m Ikf=16.23m N=1 Xti=5 Eg=1.11 Cjo=66.41p
+		M=.5022 Vj=.75 Fc=.5 Isr=10.96n Nr=2 Tt=750n)
*		Motorola	pid=MUR470	case=267-01
*		88-09-22 rmn
*$
.SUBCKT tran1 VP1 VP2 VS1 VS2
L_L2         VP1 VP2  2m  
Kn_K1         L_L2 L_L3 0.999
L_L3         VS1 VS2 2m 
.ends tran1
*$
.model IRF342	NMOS(Level=3 Gamma=0 Delta=0 Eta=0 Theta=0 Kappa=0.2 Vmax=0 Xj=0
+		Tox=100n Uo=600 Phi=.6 Rs=5.186m Kp=20.79u W=.68 L=2u Vto=3.503
+		Rd=.35 Rds=1.778MEG Cbd=820p Pb=.8 Mj=.5 Fc=.5 Cgso=1.608n
+		Cgdo=168.2p Rg=.7553 Is=53.7p N=1 Tt=570n)
*		Int'l Rectifier	pid=IRFC340	case=TO3
*		88-08-25 bam	creation
*$
.model MUR430	D(Is=289.1f Rs=33.23m Ikf=5.678m N=1 Xti=5 Eg=1.11 Cjo=70.72p
+		M=.5733 Vj=.75 Fc=.5 Isr=965.7p Nr=2 Tt=123.3n)
*		Motorola	pid=MUR420	case=267-01
*		88-09-22 rmn
*$
**$ENCRYPTED_LIB
**$INTERFACE
****
.SUBCKT uc3843 COMP GROUND ISENSE Output RT/CT VCC VFB VREF  
$CDNENCSTART
eee8c5c7a2bc4b01f045f303678664e7916da0bae22e8cb0bba041dd67c69ce448ea70148a9ac1670c8926c1ac5057c8ccfcd77bf87ca9dc505050b293a5d23c
3c27ce4d35151baef45310c19b6b8ee5dd3e74b880c9107b470f1d9a05dce8a562d766f77596a54bc7c12f90aa602ada3a94161fbf17fa92b141c5f3f67d63cb
a3aae5a2addceb3b1b335ff666912215eace41838f61ecb509eab4503c9ca88706b08ddaa393accfac0cecfc184d84c5420fae2cd4362cef4c76b6c960c2bed7
01255b430a7c74952fbfcc2b872ff9463960c039ea4988418f136a230ee154bc9bc408c26cb9767a7c1f3bb2edd3c2b1badfa85e8b91df674ecbe39a09502f8f
1f6d76046dfa75082b3adeaa6c68cb8f180272ba8a451985dc438dbbe87d1d163232871e95eadab4a7cebc9fcd25763c3524b1fdffb3cd6f2640cf0e77c63a50
65d76bca3ada22b031fbe5365ffcc0e00dfa0ebc24c5f320a88a9dcc70a8f7948de4d73a39299bb729219f3b7c3b816bf301754c69b8261fe5652e1165f81bfd
4009436498b47f5f1b335ff66691221570d2c26d31c792a728c896139d7e3fdd7284a94745096a95c7c12f90aa602ada3a94161fbf17fa92b141c5f3f67d63cb
0b00c72b7c2c95cd14fcfa6aa115c3ebc6cb8863f53e8a22ce5ec34e6f8ad1ca3d8dc16c93052d104ac88362f3f339ce0f0f955e94350ec41d9209d3471c6b59
b5f1c17ee79563039228da8980b61614223b58a493c25e177af59fcdb96adbceaccc4bf87c54b5cd5f61588ad6f945088e92095856917a5e7f7941a2f7dea559
5b835cb0f08f07711b335ff666912215cc4b585f31a652fdf3de943ac5faf2d7db31947cb4ab8d3d0eb9594ff063cfce360133d6826397008a538b8d2176a0a0
e684bc420b10b7dc896d8fbab2a5b7fad63a886c8c4222f7a246b01ed8b6fc9db2082c0c1bd13640e847dda77d5f944360ef8e1e6be94ddf36a00f0e9fcb112e
102778d1f868b7a4da6bb76400589e7de6233d3f5fa0874b983049bd0801b996c9322890ded6647b1f8a028350c4f76c602dc07affe41b5e51b94aa30fb97dd1
b5f1c17ee79563039228da8980b61614223b58a493c25e177af59fcdb96adbceaccc4bf87c54b5cd5f61588ad6f945088e92095856917a5e7f7941a2f7dea559
6afffd008636e8abf45310c19b6b8ee53879801460505b622dc8ed9cc96ddaab24fdfd9bb2e10b07180272ba8a451985dc438dbbe87d1d169e4732b4d3a201e3
c6ada2f6665016df14fcfa6aa115c3eba0e6062aeef42b5a5c7dedff6d7a0c26c7c12f90aa602ada3a94161fbf17fa92b36112a7a616cf4f7106fa125272ab4e
c0758198155a8c181b335ff666912215fed1ab83fd6f289f686cb90a919fc0f1b95836828e7774c700d3e0b087c73744aa2e2f603bc354707e713fbdc2870fb7
2c347659f2521828706b807646b80371bce198b332a9c972b616acb3afc2463ec488aabeff9ebde2a8c28d9738aeda1d019c4e2485cd61b1d0122d752285ae46
29921aa1994e478d017a7c7692d03eef180272ba8a451985dc438dbbe87d1d163232871e95eadab4a7cebc9fcd25763c3524b1fdffb3cd6f2640cf0e77c63a50
bb91294a7c8a8736c452de53e7a56a77b3bd4d4a78b0fcdfa88a9dcc70a8f7948de4d73a39299bb729219f3b7c3b816bf301754c69b8261fe5652e1165f81bfd
6a30044ee8eb8b671b335ff666912215777785636a749e628492e52ca990713717ab25c39b3409a81b2805f59118859746b4fbc394c33a27592572879191cd41
b5f1c17ee79563039228da8980b61614223b58a493c25e177af59fcdb96adbceaccc4bf87c54b5cd5f61588ad6f945088e92095856917a5e7f7941a2f7dea559
292c2905959e1f4f1b335ff6669122156e6af8ac25041f3104dd181ac331f7fb16256a7004ead026c7c12f90aa602ada3a94161fbf17fa92b141c5f3f67d63cb
b0d3d1c4e169ca4a706b807646b80371dd3e74b880c9107b20c2f7f52000a0e1b942780e52e15ca951ee7cc901603cada6219b27101d6203fa85e9d1f765003e
e644fc3843e7ff1b14fcfa6aa115c3ebc62950c710387e4492dfb910f296cfd2c7c12f90aa602ada3a94161fbf17fa92b36112a7a616cf4f7106fa125272ab4e
32c994efcc2d922e14fcfa6aa115c3eb70757d18b3f5e6709093b05e0189d993a1da378f2563fcf328de827caec7d630fefbba9e09576325d3b55e518a88efc0
240cf6a83072ff1a14fcfa6aa115c3eb1dee825e6d473421ce5ec34e6f8ad1ca3d8dc16c93052d104ac88362f3f339ceb93fe2f1d783a44e1d9209d3471c6b59
b5f1c17ee79563039228da8980b61614223b58a493c25e177af59fcdb96adbceaccc4bf87c54b5cd5f61588ad6f945088e92095856917a5e7f7941a2f7dea559
50b7073c5046e2fa1b335ff6669122150dfa128bffd483443f2bc522bf818c6d0aeb1a7030a495b4a88a9dcc70a8f7948de4d73a39299bb760468ec94202b545
a3f576b848cd34f914fcfa6aa115c3eb26cbeec92c2e9f65bf1ee911780421dd9228da8980b61614223b58a493c25e177af59fcdb96adbcee2ba605b046d60b0
0e84779c45a61693d7cd8497d83850fcc2e8ce466ad6b80dbd2753ef6b648d2106b08ddaa393accfac0cecfc184d84c5420fae2cd4362cef4c76b6c960c2bed7
88c1224860075c151b335ff6669122159279d0f83c5421a58457adcc83678ab3aa2e2f603bc35470ce69fcab684c4c0065d8daf956193111c4e78ed788778b56
0579b8ba4ddcceca1b335ff6669122156c896066005e22691c55013818ff2862180272ba8a451985dc438dbbe87d1d163232871e95eadab4f8a5d13c6c9b639b
4e05ccaa0bc127902fbfcc2b872ff9466a7899418c9b1c351a98ae0fdcf2317769a1112eb4c1f71bf72b479f16abbf16badfa85e8b91df674ecbe39a09502f8f
1f6d76046dfa75082b3adeaa6c68cb8f180272ba8a451985dc438dbbe87d1d163232871e95eadab4a7cebc9fcd25763c3524b1fdffb3cd6f2640cf0e77c63a50
65d76bca3ada22b031fbe5365ffcc0e00dfa0ebc24c5f320a88a9dcc70a8f7948de4d73a39299bb729219f3b7c3b816bf301754c69b8261fe5652e1165f81bfd
6f9764b062a61846070ad78826a995de88f55d9f3ede82116b574213c15e8d89df55894bf84c2890d70950848dbe847bc4b3903d63635dc6101c4aa6c97aafe9
33d24eec760bbb4ad680fcae1e3324f830e38bc49f6f486349cca555100631a52468308ebb89dd01b3f59144170d68ac5afc79af6316c62211384a5c602f5a74
644727dbdf1373a4da6bb76400589e7d133b91c8d66d513220c640fec827b10a50932f91c29cb99b710f626c2faf14a69228da8980b61614b09280ba05bd1cda
61b2bf3900804daf1b335ff666912215a23972649c7382be300ab1fc4dc283763c991a04052eba44644126c9831a96bd60ef8e1e6be94ddf36a00f0e9fcb112e
1874b0cb6565ce152fbfcc2b872ff94669453d607f086b3e1a98ae0fdcf231771e667c5884cfca9153ea93c692486753badfa85e8b91df674ecbe39a09502f8f
1f6d76046dfa75082b3adeaa6c68cb8f180272ba8a451985dc438dbbe87d1d163232871e95eadab4a7cebc9fcd25763c3524b1fdffb3cd6f2640cf0e77c63a50
65d76bca3ada22b031fbe5365ffcc0e00dfa0ebc24c5f320a88a9dcc70a8f7948de4d73a39299bb729219f3b7c3b816bf301754c69b8261fe5652e1165f81bfd
e6e8488e20e4e9822fbfcc2b872ff946cdbb784d7bb18c368f136a230ee154bcb73c5074ddd495af4072ad6b0f64d1c7badfa85e8b91df674ecbe39a09502f8f
1f6d76046dfa75082b3adeaa6c68cb8f180272ba8a451985dc438dbbe87d1d163232871e95eadab4a7cebc9fcd25763c3524b1fdffb3cd6f2640cf0e77c63a50
65d76bca3ada22b031fbe5365ffcc0e00dfa0ebc24c5f320a88a9dcc70a8f7948de4d73a39299bb729219f3b7c3b816bf301754c69b8261fe5652e1165f81bfd
8e36af18aaaae552473e1b48315e79ee8ac365df98fa29fc8ff5ace2d04dbc1decc2c053bf5dba70a88a9dcc70a8f7948de4d73a39299bb760468ec94202b545
631bf06b34e214fe1b335ff666912215694fa77d0011a7c7dd31126139390a1df366e3664c916d2e23b782b3d6a37df130e38bc49f6f4863eedf3850938af00e
0dea85bdd2f6170514fcfa6aa115c3eb309513c2d95e5adc4d2f23a30635e4369228da8980b61614223b58a493c25e177af59fcdb96adbcee2ba605b046d60b0
7e6fddfd8efbb9b07cee15996697a57c2f96f87333e9111144b04f0df4fd02d1901c4e5fae2fa68086ef3727cb60b47181cc204d534bceaf9d6bedf9d0034ac8
93d3808648446fd74089ba17cddef67d661186f678d365a2f88cbd2aa23e240d49bcb2e9b7241eb4644126c9831a96bd60ef8e1e6be94ddf36a00f0e9fcb112e
336ab444b7c2ade70dfb5ee43f9ea2bfe78d7e46468a49e4faca85d0862a74fb716f852af1c8d5c838d0cfa6ce900c0dc71a1ad450d6a43b1aabfa10941d45cf
768d3a26663c147cda6bb76400589e7d214cf6ab092a13374dbd7525d3ff80466b574213c15e8d89df55894bf84c28901f9838897b052455a079afa197b4792b
3f87127f8b11407806b08ddaa393accfac0cecfc184d84c5420fae2cd4362cefbe997f20690c57b18b56520a7b43b6693b9864f5b6d522020ff8e79c908c794d
61b577d5bbeba94b706b807646b80371380a6fcf00ea65b86146d6a0c4941a25c488aabeff9ebde2c93bfe3ba25e2179c33540990b03323667e124ca63143420
7b048a26f30e19a62dcc6c3adb5e3c9ec4b2e1def88ef00ac4a7e369b56566aa9bd635d61786df2ab1964e80f3e69789c4a7e369b56566aaa06362783f151f2c
0c6ababd2814336498f19a3ac5f857dac7c12f90aa602ada3a94161fbf17fa92b36112a7a616cf4fe09cca2edde8e68c51dae041c798e65f27d673ceebb915c7
bb91294a7c8a873644605cc39d0198774340a4beb1ffdcd3b5b9009ad4855168180272ba8a451985dc438dbbe87d1d163232871e95eadab4f8a5d13c6c9b639b
1ffa01538349ce02a7ade781b81428b35f3033e45aec5ccb24be77f172ebdc5124fdfd9bb2e10b07180272ba8a451985dc438dbbe87d1d169e4732b4d3a201e3
5a4c6ac90cfb2683da6bb76400589e7dbca7296d42f691128492e52ca990713796edccfb70b99e494c1c6d01ccd426b45eade9c5f58e628dd38aff4e12555a5d
600062a8f6bfa7632988caa228caab502bc714763a1580f26bc068752fd13e0c180272ba8a451985dc438dbbe87d1d163232871e95eadab4f8a5d13c6c9b639b
600062a8f6bfa7632988caa228caab505655a1ef42c3f3a96bc068752fd13e0c180272ba8a451985dc438dbbe87d1d163232871e95eadab4f8a5d13c6c9b639b
600062a8f6bfa7635b1af2ee20df006fa1ece358ea905b9cc7c12f90aa602ada3a94161fbf17fa92b36112a7a616cf4fe09cca2edde8e68cc52c72c1385522b6
$CDNENCFINISH
.ENDS
*$
.subckt uc3843_U1_S1 1 2 3 4  
$CDNENCSTART
eee8c5c7a2bc4b01f045f303678664e7916da0bae22e8cb0bba041dd67c69ce448ea70148a9ac1670c8926c1ac5057c8ccfcd77bf87ca9dc505050b293a5d23c
44f117741689d59131820e631d1d1d749e35700c7913e939a88a9dcc70a8f7948de4d73a39299bb729219f3b7c3b816bf301754c69b8261fe5652e1165f81bfd
3c76beba9b808c126f31076d2b37e96baa35006d782c6ce9aa2e2f603bc35470ce69fcab684c4c0065d8daf9561931117bc793f6aef14b33f8bb4109b427a298
1e7e75f62a07f7b1bbcb463bf6330e447b3ba2fd65dbf9050ffb76e2ddf4497b2596d65fe0df484d1859a361dad87fa6bedd4f0e0429e49f7c4bbf5b95fbb5a2
$CDNENCFINISH
.ends uc3843_U1_S1
*$
.subckt uc3843_U1_S2 1 2 3 4  
$CDNENCSTART
eee8c5c7a2bc4b01f045f303678664e7916da0bae22e8cb0bba041dd67c69ce448ea70148a9ac1670c8926c1ac5057c8ccfcd77bf87ca9dc505050b293a5d23c
c21144fd15b2c61331820e631d1d1d7423f284e2e346bfb8a88a9dcc70a8f7948de4d73a39299bb729219f3b7c3b816bf301754c69b8261fe5652e1165f81bfd
e07b7a6acd4bf43c6f31076d2b37e96baa35006d782c6ce9aa2e2f603bc35470ce69fcab684c4c0065d8daf9561931117bc793f6aef14b33f8bb4109b427a298
1e7e75f62a07f7b1bbcb463bf6330e44eff574bcdcb677aa0ffb76e2ddf4497b2596d65fe0df484d4d7063319abdc5f788826158af106682694a9799050f1a6f
$CDNENCFINISH
.ends uc3843_U1_S2
*$
